18

C     -1.283547    0.711575   -0.182155
C     -1.241426   -0.800220    0.074293
C      0.068351   -1.409774   -0.441449
C      1.283546   -0.711574    0.182155
C      1.241426    0.800220   -0.074295
C     -0.068351    1.409774    0.441449
H     -1.303634    0.904206   -1.277483
H     -2.213700    1.132407    0.256639
H     -2.099078   -1.283814   -0.440873
H     -1.341199   -0.997062    1.164501
H      0.112441   -1.317840   -1.549085
H      0.095409   -2.490961   -0.186246
H      1.303631   -0.904206    1.277484
H      2.213700   -1.132407   -0.256638
H      1.341197    0.997061   -1.164503
H      2.099078    1.283816    0.440870
H     -0.095406    2.490962    0.186249
H     -0.112437    1.317838    1.549086
